
##########################################################################
#               Crystallographic Information Format file
#               Produced by PyCifRW module
#
#  This is a CIF file.  CIF has been adopted by the International
#  Union of Crystallography as the standard for data archiving and
#  transmission.
#
#  For information on this file format, follow the CIF links at
#  http://www.iucr.org
##########################################################################

data_0

loop_
  _atom_site_label
  _atom_site_fract_x
  _atom_site_fract_y
  _atom_site_fract_z
  _atom_site_type_symbol
         Na1       0.30025138805883733           0.6997486119411627  0.5000000000099961 Na
         Na2       0.6136137257297727  0.3863862742702273  0.0       Na
         Ca1       0.44312048722652153           0.9891922274815184  0.0       Ca
         Ca2       0.010807772509514318          0.5568795127645111  0.0       Ca
         C1        0.35051933101728794           0.23936266846114895           0.5000000000099961 C
         C2        0.7606373315388509  0.6494806689827122  0.5000000000099961  C
         C3        0.9987854503887237  0.001214549611276329          0.0       C
         O1        0.35462515973736364           0.3344146486911701  0.7260518089330464 O
         O2        0.6655853512998626  0.645374840253669   0.7260518089330464  O
         O3        0.35462515973736364           0.3344146486911701  0.27394819108694574          O
         O4        0.6655853512998626  0.645374840253669   0.27394819108694574           O
         O5        0.3483891281343203  0.046334527266930436          0.5000000000099961 O
         O6        0.9536654727330696  0.6516108718656797  0.5000000000099961  O
         O7        0.8117951573797577  0.9853985530981847  0.0       O
         O8        0.014601446892847874          0.18820484261127504           0.0      O
         O9        0.18209228630502627           0.8179077136949737  0.0       O
_cell_angle_alpha                       90.0
_cell_angle_beta                        90.0
_cell_angle_gamma                       65.77392468934941
_cell_length_a                          6.639881522305061
_cell_length_b                          6.639881522305061
_cell_length_c                          5.0019584377
loop_
  _symmetry_equiv_pos_as_xyz
         'x, y, z'
_symmetry_int_tables_number             1
_symmetry_space_group_name_H-M          'P 1'
