
##########################################################################
#               Crystallographic Information Format file
#               Produced by PyCifRW module
#
#  This is a CIF file.  CIF has been adopted by the International
#  Union of Crystallography as the standard for data archiving and
#  transmission.
#
#  For information on this file format, follow the CIF links at
#  http://www.iucr.org
##########################################################################

data_0

loop_
  _atom_site_label
  _atom_site_fract_x
  _atom_site_fract_y
  _atom_site_fract_z
  _atom_site_type_symbol
         Rb1       0.8494740995099295  0.8494740995188442  0.4515777014524795  Rb
         Rb2       0.8494740995188045  0.4515777014436043  0.8494740995188045  Rb
         Rb3       0.40052590048563536           0.40052590048563536           0.40052590048563536          Rb
         Rb4       0.7984222985431206  0.40052590048563536           0.40052590048563536          Rb
         Rb5       0.4515777014436043  0.8494740995188045  0.8494740995188045  Rb
         Rb6       0.8494740995188045  0.8494740995099692  0.8494740995188045  Rb
         Rb7       0.40052590048563536           0.7984222985431206  0.40052590048563536          Rb
         Rb8       0.40052590048563536           0.40052590048563536           0.7984222985431206 Rb
         Na1       0.5       0.5       0.5       Na
         Na2       0.7500000000000223  0.7499999999999956  0.7500000000000221  Na
         Si1       0.890018387749477   0.890018387749477   0.03475970851217314           Si
         Si2       0.18520351599332285           0.8900183877539006  0.034759708507749565         Si
         Si3       0.18520351599332252           0.034759708507749565          0.8900183877539006 Si
         Si4       0.8900183877539213  0.03475970850772883           0.8900183877539213 Si
         Si5       0.35998161225054504           0.35998161225054504           0.06479648401108733          Si
         Si6       0.35998161225054504           0.06479648401108733           0.35998161225054504          Si
         Si7       0.21524029149227114           0.06479648401550933           0.3599816122461231 Si
         Si8       0.21524029149227114           0.35998161224612296           0.06479648401550937          Si
         Si9       0.8900183877539006  0.18520351599332285           0.034759708507749565         Si
         Si10      0.8900183877538915  0.03475970850775867           0.18520351599333157          Si
         Si11      0.06479648401108733           0.35998161225054504           0.35998161225054504          Si
         Si12      0.21524029148784915           0.35998161225054504           0.35998161225054504          Si
         Si13      0.034759708507749565          0.18520351599332252           0.8900183877539006 Si
         Si14      0.034759708512141996          0.890018387749508   0.1852035159889304 Si
         Si15      0.8900183877538694  0.8900183877450847  0.18520351599335372           Si
         Si16      0.8900183877539213  0.18520351599330176           0.8900183877539213 Si
         Si17      0.06479648401550933           0.21524029149227114           0.3599816122461231 Si
         Si18      0.35998161225054504           0.21524029148784915           0.35998161225054504          Si
         Si19      0.35998161225054504           0.35998161225054504           0.21524029148784915          Si
         Si20      0.06479648401550933           0.35998161224612296           0.21524029149227117          Si
         Si21      0.03475970851217314           0.8900183877494772  0.890018387749477  Si
         Si22      0.18520351599330176           0.8900183877539213  0.8900183877539213 Si
         Si23      0.35998161224612296           0.21524029149227114           0.06479648401550937          Si
         Si24      0.35998161224612296           0.06479648401550933           0.21524029149227117          Si
         Si25      0.6802667566884615  0.6802667566972966  0.9591997299169808  Si
         Si26      0.6802667566973232  0.9591997299169541  0.6802667566973232  Si
         Si27      0.5697332433071652  0.5697332432982504  0.5697332433071652  Si
         Si28      0.2908002700874768  0.5697332432982901  0.5697332433071255  Si
         Si29      0.9591997299169809  0.6802667566972966  0.6802667566884614  Si
         Si30      0.6802667566973232  0.6802667566884348  0.6802667566973232  Si
         Si31      0.5697332433071652  0.2908002700786017  0.5697332433071652  Si
         Si32      0.5697332433071254  0.5697332432982901  0.2908002700874768  Si
         Si33      0.624999999997791   0.624999999997791   0.12499999999780909           Si
         Si34      0.6250000000022442  0.12499999999335604           0.6250000000022441 Si
         Si35      0.6250000000022442  0.6249999999933382  0.6250000000022442  Si
         Si36      0.12499999999780886           0.6249999999977912  0.6249999999977912 Si
_cell_angle_alpha                       59.99999999999999
_cell_angle_beta                        59.99999999999999
_cell_angle_gamma                       59.99999999999999
_cell_length_a                          15.990672868676645
_cell_length_b                          15.990672868676645
_cell_length_c                          15.990672868676645
loop_
  _symmetry_equiv_pos_as_xyz
         'x, y, z'
_symmetry_int_tables_number             1
_symmetry_space_group_name_H-M          'P 1'
