
##########################################################################
#               Crystallographic Information Format file
#               Produced by PyCifRW module
#
#  This is a CIF file.  CIF has been adopted by the International
#  Union of Crystallography as the standard for data archiving and
#  transmission.
#
#  For information on this file format, follow the CIF links at
#  http://www.iucr.org
##########################################################################

data_0

loop_
  _atom_site_label
  _atom_site_fract_x
  _atom_site_fract_y
  _atom_site_fract_z
  _atom_site_type_symbol
         Cs1       0.5728750211036108  0.7500000000083815  0.06194814200369362           Cs
         Cs2       0.4271249788766496  0.2500000000027939  0.938051857996257   Cs
         Cs3       0.07285768677561001           0.7500000000083815  0.4379637583001648 Cs
         Cs4       0.9271423132441148  0.2500000000027939  0.5620362416998125  Cs
         Si1       0.9586402553651225  0.9298551692563284  0.8182340777390054  Si
         Si2       0.9586402553651225  0.5701448307492594  0.8182340777390054  Si
         Si3       0.04135974463486402           0.4298551692507406  0.18176592226093974          Si
         Si4       0.04135974463486402           0.07014483074367167           0.18176592226093974          Si
         Si5       0.4583301729405208  0.9298639269076716  0.6817352713313934  Si
         Si6       0.4583301729405208  0.5701360730979274  0.6817352713313934  Si
         Si7       0.5416698270594678  0.4298639269020838  0.3182647286685748  Si
         Si8       0.5416698270594678  0.07013607309233291           0.3182647286685748 Si
         H1        0.49999999999013456           0.0       0.4999999999923013  H
         H2        0.49999999999013456           0.4999999999944123  0.4999999999923013 H
         H3        0.0       0.0       0.0       H
         H4        0.0       0.4999999999944123  0.0       H
         O1        0.8889442356379283  0.4752674225185817  0.9193648243234039  O
         O2        0.8889442356379283  0.024732577487012762          0.9193648243234039 O
         O3        0.11105576436206285           0.9752674225241693  0.08063517566890147          O
         O4        0.11105576436206285           0.5247325774814294  0.08063517566890147          O
         O5        0.758719994285109   0.9705542602713352  0.7220680034003027  O
         O6        0.758719994285109   0.5294457397342527  0.7220680034003027  O
         O7        0.24128000571487423           0.4705542602657473  0.2779319965919795 O
         O8        0.24128000571487423           0.02944573972866718           0.2779319965919795 O
         O9        0.6111702385391848  0.9752416220010599  0.4194322545771179  O
         O10       0.6111702385391848  0.5247583780157145  0.4194322545771179  O
         O11       0.3888297614608038  0.47524162198429676           0.5805677454228503 O
         O12       0.3888297614608038  0.024758378010121117          0.5805677454228503 O
         O13       0.2587265080676079  0.9710046897712498  0.77785330162893    O
         O14       0.2587265080676079  0.5289953102343491  0.77785330162893    O
         O15       0.7412734919323808  0.471004689765662   0.2221466983710459  O
         O16       0.7412734919323808  0.028995310228754706          0.2221466983710459 O
         O17       0.9401068435024693  0.7500000000083815  0.8427961621776691  O
         O18       0.05989315647778708           0.2500000000027939  0.15720383782226696          O
         O19       0.4387443294148664  0.7500000000083815  0.6572990011676962  O
         O20       0.5612556705851223  0.2500000000027939  0.342700998832272   O
_cell_angle_alpha                       90.0
_cell_angle_beta                        90.02589392961919
_cell_angle_gamma                       90.0
_cell_length_a                          5.068878832990318
_cell_length_b                          8.948186748788
_cell_length_c                          13.010800359886673
loop_
  _symmetry_equiv_pos_as_xyz
         'x, y, z'
_symmetry_int_tables_number             1
_symmetry_space_group_name_H-M          'P 1'
